/*--------------------------------*- C++ -*----------------------------------*\
| =========                 |                                                 |
| \\      /  F ield         | OpenFOAM: The Open Source CFD Toolbox           |
|  \\    /   O peration     | Version:  v2412                                 |
|   \\  /    A nd           | Website:  www.openfoam.com                      |
|    \\/     M anipulation  |                                                 |
\*---------------------------------------------------------------------------*/
FoamFile
{
    version     2.0;
    format      ascii;
    class       volScalarField;
    object      T;
}
// * * * * * * * * * * * * * * * * * * * * * * * * * * * * * * * * * * * * * //

dimensions      [0 0 0 1 0 0 0];

internalField   uniform 20;

boundaryField
{
    inlet
    {
        type            fixedValue;
        value           uniform 20;
    }

    outlet
    {
        type            zeroGradient;
    }

    "walls_.*"
    {
        type            fixedValue;
        value           uniform 0;
    }

    upstream
    {
        type            zeroGradient;
    }

    baffles
    {
        type            zeroGradient;
    }

}


// ************************************************************************* //
