/*--------------------------------*- C++ -*----------------------------------*\
| =========                 |                                                 |
| \\      /  F ield         | OpenFOAM: The Open Source CFD Toolbox           |
|  \\    /   O peration     | Version:  2412                                  |
|   \\  /    A nd           | Website:  www.openfoam.com                      |
|    \\/     M anipulation  |                                                 |
\*---------------------------------------------------------------------------*/
FoamFile
{
    version     2.0;
    format      ascii;
    arch        "LSB;label=32;scalar=64";
    class       polyBoundaryMesh;
    location    "constant/polyMesh";
    object      boundary;
}
// * * * * * * * * * * * * * * * * * * * * * * * * * * * * * * * * * * * * * //

6
(
    inlet
    {
        type            patch;
        nFaces          100;
        startFace       5500;
    }
    outlet
    {
        type            patch;
        nFaces          100;
        startFace       5600;
    }
    walls_top
    {
        type            wall;
        inGroups        1(wall);
        nFaces          200;
        startFace       5700;
    }
    walls_bottom
    {
        type            wall;
        inGroups        1(wall);
        nFaces          200;
        startFace       5900;
    }
    walls_back
    {
        type            wall;
        inGroups        1(wall);
        nFaces          200;
        startFace       6100;
    }
    walls_front
    {
        type            wall;
        inGroups        1(wall);
        nFaces          200;
        startFace       6300;
    }
)

// ************************************************************************* //
