/*--------------------------------*- C++ -*----------------------------------*\
| =========                 |                                                 |
| \\      /  F ield         | OpenFOAM: The Open Source CFD Toolbox           |
|  \\    /   O peration     | Version:  v2412                                 |
|   \\  /    A nd           | Website:  www.openfoam.com                      |
|    \\/     M anipulation  |                                                 |
\*---------------------------------------------------------------------------*/
FoamFile
{
    version     2.0;
    format      ascii;
    class       dictionary;
    object      controlDict;
}
// * * * * * * * * * * * * * * * * * * * * * * * * * * * * * * * * * * * * * //

application     simpleFoam;

startFrom       startTime;

startTime       0;

stopAt          endTime;

endTime         1;

deltaT          0.1;

writeControl    timeStep;

writeInterval   1;

purgeWrite      0;

writeFormat     ascii;

writePrecision  6;

writeCompression off;

timeFormat      general;

timePrecision   6;

runTimeModifiable true;

functions
{
    TemperatureTransport
    {
        type            scalarTransport;
        libs            (solverFunctionObjects);

        enabled         true;
        writeControl    writeTime;
        writeInterval   1;

        field           T;
        D               0.143e-6;

        write           true;
/*
        fvOptions
        {
            unitySource
            {
                type            scalarSemiImplicitSource;
                enabled         true;

                selectionMode   all;
                volumeMode      specific;

                sources
                {
                    s           (1 0);
                }
            }
        }

        resetOnStartUp  false;
*/
    }
}

// ************************************************************************* //
